pcf 
* control data 
restart estimation 
     22   227      2      0     1 
     2     1   double   point   1   0   0 
10.0  -3.0    0.3    0.03     9  0  LAMFORGIVE DERFORGIVE 
0.2   2.0   1.0e-3 absparmax(1)=0.3
0.1  noaui 
30   .005  4   4  .005   4 
1    1    1  
* singular value decomposition 
1 
10 5e-7 
1 
* parameter groups 
chem         relative      1.00000E-02  0.0000    always_2   2.0000      parabolic
trans        relative      1.00000E-02  0.0000    always_2   2.0000      parabolic
* parameter data 
AnionHPO4_k	fixed		absolute(1)	26.7		26.2		27.2		chem	1.0		0.0		1
Anion_sites	none		factor		3450e-6		1150e-6		4600e-6		chem	1.0		0.0		1
Cation_k	fixed		absolute(1)	-1.8		-2.8		-0.8		chem	1.0		0.0		1
Cation_sites	none		factor		18000e-6	9000e-6		36000e-6	chem	1.0		0.0		1
TOC		fixed		factor		1600.0		800.0		3200.0		chem	1.0		0.0		1
Decay_k		none		factor		1e-7		0.5e-7		2e-7		chem	1.0		0.0		1
Effluent_P	fixed		factor		500.		190.0		500.0		chem	1.0		0.0		1
AnionOH2_k	fixed		absolute(1)	4.1		2.0		6.0		chem	1.0		0.0		1
CationOH2_k	fixed		absolute(1)	4.1		2.0		6.0		chem	1.0		0.0		1
Remove_P_k	none		factor		2.1e-8		1e-9		1e-7		chem	1.0		0.0		1
DO		fixed		factor		250.0		100.0		500.		chem	1.0		0.0		1
Remove_N2_k	fixed		factor		1.16e-7		1e-9		1e-5		chem	1.0		0.0		1
SOC		fixed		factor		1000.0		10.0		10000.0		chem	1.0		0.0		1
Sorb_SOC_k	none		factor		1.16e-7		1e-9		1e-5		chem	1.0		0.0		1
React_SOC_k	none		factor		1.16e-7		1e-9		1e-5		chem	1.0		0.0		1
time_step	fixed		absolute(1)	0.125		0.0		0.25		trans	1.0		0.0		1
time_change	fixed		absolute(1)	1994		1994		2015		trans	1.0		0.0		1
pond_level	none		absolute(1)	10.19		9.89		12.19		trans	1.0		0.0		1
bottom_kxy	none		factor  	0.0000106	1e-6		1e-3		trans	1.0		0.0		1
bottom_kz	tied		factor		0.000003	0.3e-6		0.3e-3		trans	1.0		0.0		1
middle_kxy	none		factor		0.000106	1e-6		1e-3		trans	1.0		0.0		1
middle_kz	tied		factor		0.00003		0.3e-6		0.3e-3		trans	1.0		0.0		1
bottom_kz	bottom_kxy
middle_kz	middle_kxy
* observation groups 
P

* observation data 
P_uM_1993_1     0.71400E+00    1.29E+00       P
P_uM_1993_2     0.71400E+00    1.29E+00       P
P_uM_1993_3     0.71400E+00    1.29E+00       P
P_uM_1993_4     0.71400E+00    1.29E+00       P
P_uM_1993_5     0.71400E+00    1.29E+00       P
P_uM_1993_6     0.14290E+01    7.65E-01       P
P_uM_1993_7     0.35710E+01    3.85E-01       P
P_uM_1993_8     0.28570E+01    4.55E-01       P
P_uM_1993_9     0.21430E+01    5.65E-01       P
P_uM_1993_10     0.50000E+01   2.99E-01        P
P_uM_1993_11     0.35710E+01   3.85E-01        P
P_uM_1993_12     0.71400E+00   6.88E-02        P
P_uM_1993_13     0.78571E+02   3.31E-02        P
P_uM_1993_14     0.55000E+02   3.52E-02        P
P_uM_1993_15     0.12857E+02   4.45E-02        P
P_uM_1993_16     0.71430E+01   2.29E-01        P
P_uM_1993_17     0.28570E+01   4.55E-01        P
P_uM_1993_18     0.21430E+01   5.65E-01        P
P_uM_1993_19     0.71429E+02   3.39E-02        P
P_uM_1993_20     0.63571E+02   3.42E-02        P
P_uM_1993_21     0.54286E+02   3.45E-02        P
P_uM_1993_22     0.47143E+02   3.49E-02        P
P_uM_1993_23     0.45714E+02   3.55E-02        P
P_uM_1993_24     0.55000E+02   3.61E-02        P
P_uM_1993_25     0.66429E+02   3.69E-02        P
P_uM_1993_26     0.55000E+02   3.79E-02        P
P_uM_1993_27     0.17857E+02   3.94E-02        P
P_uM_1993_28     0.57140E+01   4.17E-02        P
P_uM_1993_29     0.71430E+01   4.44E-02        P
P_uM_1993_30     0.19286E+02   4.84E-02        P
P_uM_1993_31     0.10714E+02   5.35E-02        P
P_uM_1993_32     0.57140E+01   8.71E-02        P
P_uM_1993_33     0.71430E+01   2.29E-01        P
P_uM_1993_34     0.71400E+00   9.65E-02        P
P_uM_1993_35     0.71400E+00   6.20E-02        P
P_uM_1993_36     0.71400E+00   4.71E-02        P
P_uM_1993_37     0.71400E+00   4.00E-02        P
P_uM_1993_38     0.14290E+01   3.63E-02        P
P_uM_1993_39     0.28570E+01   3.43E-02        P
P_uM_1993_40     0.78571E+02   3.27E-02        P
P_uM_1993_41     0.92857E+02   3.29E-02        P
P_uM_1993_42     0.85714E+02   3.30E-02        P
P_uM_1993_43     0.71429E+02   3.31E-02        P
P_uM_1993_44     0.85714E+02   3.32E-02        P
P_uM_1993_45     0.92857E+02   3.34E-02        P
P_uM_1993_46     0.10000E+03   3.16E-02        P
P_uM_1993_47     0.92857E+02   3.34E-02        P
P_uM_1993_48     0.85714E+02   3.38E-02        P
P_uM_1993_49     0.14290E+01   3.23E-02        P
P_uM_1993_50     0.71400E+00   3.09E-02        P
P_uM_1993_51     0.71400E+00   3.05E-02        P
P_uM_1993_52     0.21430E+01   3.34E-02        P
P_uM_1993_53     0.28570E+01   3.81E-02        P
P_uM_1993_54     0.21430E+01   4.23E-02        P
P_uM_1993_55     0.50000E+01   4.78E-02        P
P_uM_1993_56     0.64290E+01   5.54E-02        P
P_uM_1993_57     0.71430E+01   5.75E-02        P
P_uM_1993_58     0.14286E+02   5.88E-02        P
P_uM_1993_59     0.15000E+02   6.01E-02        P
P_uM_1993_60     0.15000E+02   6.07E-02        P
P_uM_1993_61     0.12143E+02   6.12E-02        P
P_uM_1993_62     0.15714E+02   6.21E-02        P
P_uM_1993_63     0.15000E+02   6.37E-02        P
P_uM_1993_64     0.20000E+02   5.10E-02        P
P_uM_1993_65     0.10714E+02   3.47E-02        P
P_uM_1993_66     0.57140E+01   3.14E-02        P
P_uM_1993_67     0.57140E+01   3.03E-02        P
P_uM_1993_68     0.50000E+01   2.93E-02        P
P_uM_1993_69     0.50000E+01   3.05E-02        P
P_uM_1993_70     0.57140E+01   3.18E-02        P
P_uM_1993_71     0.35710E+01   3.31E-02        P
P_uM_1993_72     0.42860E+01   3.39E-02        P
P_uM_1993_73     0.56429E+02   3.47E-02        P
P_uM_1993_74     0.57140E+01   3.50E-02        P
P_uM_1993_75     0.71400E+00   3.48E-02        P
P_uM_1993_76     0.28570E+01   3.46E-02        P
P_uM_1993_77     0.21430E+01   3.33E-02        P
P_uM_1993_78     0.71400E+00   3.20E-02        P
P_uM_1993_79     0.14290E+01   3.73E-01        P
P_uM_1993_80     0.50000E+01   2.99E-01        P
P_uM_1993_81     0.35714E+02   6.84E-02        P
P_uM_1993_82     0.48571E+02   5.44E-02        P
P_uM_1993_83     0.50714E+02   5.26E-02        P
P_uM_1993_84     0.30714E+03   1.36E-02        P
P_uM_1993_85     0.36429E+02   6.74E-02        P
P_uM_1993_86     0.27857E+02   7.96E-02        P
P_uM_1993_87     0.25000E+02   6.39E-02        P
P_uM_1993_88     0.20714E+02   5.39E-02        P
P_uM_1993_89     0.16429E+02   4.70E-02        P
P_uM_1993_90     0.11429E+02   4.18E-02        P
P_uM_1993_91     0.10000E+02   3.78E-02        P
P_uM_1993_92     0.10000E+02   3.46E-02        P
P_uM_1993_93     0.71400E+00   1.29E+00        P
P_uM_1993_94     0.64290E+01   6.48E-02        P
P_uM_1993_95     0.85714E+02   3.55E-02        P
P_uM_1993_96     0.13571E+03   2.51E-02        P
P_uM_1993_97     0.10714E+03   3.00E-02        P
P_uM_1993_98     0.56429E+02   4.49E-02        P
P_uM_1993_99     0.38571E+02   4.66E-02        P
P_uM_1993_100     0.29286E+02  4.78E-02         P
P_uM_1993_101     0.33571E+02  4.82E-02         P
P_uM_1993_102     0.12857E+03  2.62E-02         P
P_uM_1993_103     0.92857E+02  3.34E-02         P
P_uM_1993_104     0.11429E+03  2.86E-02         P
P_uM_1993_105     0.71429E+02  2.43E-02         P
P_uM_1993_106     0.26429E+02  2.11E-02         P
P_uM_1993_107     0.17143E+02  2.75E-02         P
P_uM_1993_108     0.71400E+00  9.11E-02         P
P_uM_1993_109     0.21430E+01  8.81E-02         P
P_uM_1993_110     0.38571E+02  6.46E-02         P
P_uM_1993_111     0.71430E+01  9.50E-02         P
P_uM_1993_112     0.78571E+02  3.79E-02         P
P_uM_1993_113     0.67143E+02  4.26E-02         P
P_uM_1993_114     0.58571E+02  4.72E-02         P
P_uM_1993_115     0.56429E+02  4.86E-02         P
P_uM_1993_116     0.55714E+02  4.90E-02         P
P_uM_1993_117     0.44286E+02  5.83E-02         P
P_uM_1993_118     0.39286E+02  6.24E-02         P
P_uM_1993_119     0.29286E+02  6.81E-02         P
P_uM_1993_120     0.26429E+02  7.75E-02         P
P_uM_1993_121     0.24286E+02  9.14E-02         P
P_uM_1993_122     0.22857E+02  9.57E-02         P
P_uM_1993_123     0.21429E+02  1.00E-01         P
P_uM_1993_124     0.19286E+02  1.09E-01         P
P_uM_1993_125     0.15000E+02  1.31E-01         P
P_uM_1993_126     0.71430E+01  2.29E-01         P
P_uM_1993_127     0.71400E+00  1.62E-01         P
P_uM_1993_128     0.71400E+00  1.20E-01         P
P_uM_1993_129     0.71400E+00  8.35E-02         P
P_uM_1993_130     0.71400E+00  6.35E-02         P
P_uM_1993_131     0.14290E+01  5.20E-02         P
P_uM_1993_132     0.14290E+01  4.89E-02         P
P_uM_1993_133     0.21430E+01  5.11E-02         P
P_uM_1993_134     0.27857E+02  5.36E-02         P
P_uM_1993_135     0.44286E+02  5.61E-02         P
P_uM_1993_136     0.66429E+02  4.30E-02         P
P_uM_1993_137     0.78571E+02  3.79E-02         P
P_uM_1993_138     0.85714E+02  3.55E-02         P
P_uM_1993_139     0.92857E+02  3.34E-02         P
P_uM_1993_140     0.85714E+02  3.55E-02         P
P_uM_1993_141     0.85714E+02  3.55E-02         P
P_uM_1993_142     0.14290E+01  5.70E-02         P
P_uM_1993_143     0.71400E+00  6.12E-02         P
P_uM_1993_144     0.21430E+01  6.94E-02         P
P_uM_1993_145     0.71400E+00  1.29E+00         P
P_uM_1993_146     0.71400E+00  5.73E-02         P
P_uM_1993_147     0.71400E+00  5.79E-02         P
P_uM_1993_148     0.71400E+00  6.08E-02         P
P_uM_1993_149     0.14290E+01  6.65E-02         P
P_uM_1993_150     0.71400E+00  1.37E-01         P
P_uM_1993_151     0.14290E+01  7.65E-01         P
P_uM_1993_152     0.71400E+00  4.56E-01         P
P_uM_1993_153     0.71400E+00  8.30E-02         P
P_uM_1993_154     0.24286E+02  5.04E-02         P
P_uM_1993_155     0.10000E+03  3.16E-02         P
P_uM_1993_156     0.12143E+03  2.73E-02         P
P_uM_1993_157     0.78571E+02  3.63E-02         P
P_uM_1993_158     0.18571E+02  3.74E-02         P
P_uM_1993_159     0.10714E+02  3.90E-02         P
P_uM_1993_160     0.15000E+02  4.16E-02         P
P_uM_1993_161     0.28570E+01  5.38E-02         P
P_uM_1993_162     0.42860E+01  9.19E-02         P
P_uM_1993_163     0.71400E+00  1.41E-01         P
P_uM_1993_164     0.42860E+01  1.96E-01         P
P_uM_1993_165     0.21430E+01  3.10E-01         P
P_uM_1993_166     0.28570E+01  4.55E-01         P
P_uM_1993_167     0.71400E+00  1.03E-01         P
P_uM_1993_168     0.14290E+01  7.93E-02         P
P_uM_1993_169     0.14290E+01  6.55E-02         P
P_uM_1993_170     0.10000E+02  5.62E-02         P
P_uM_1993_171     0.30714E+02  4.98E-02         P
P_uM_1993_172     0.45714E+02  5.30E-02         P
P_uM_1993_173     0.51429E+02  5.21E-02         P
P_uM_1993_174     0.56429E+02  4.86E-02         P
P_uM_1993_175     0.60000E+02  4.64E-02         P
P_uM_1993_176     0.70714E+02  4.10E-02         P
P_uM_1993_177     0.65000E+02  4.37E-02         P
P_uM_1993_178     0.69286E+02  4.16E-02         P
P_uM_1993_179     0.67857E+02  4.23E-02         P
P_uM_1993_180     0.10714E+03  3.00E-02         P
P_uM_1993_181     0.92857E+02  3.34E-02         P
P_uM_1993_182     0.21430E+01  5.65E-01         P
P_uM_1993_183     0.69286E+02  2.84E-02         P
P_uM_1993_184     0.18571E+03  1.71E-02         P
P_uM_1993_185     0.15000E+03  1.66E-02         P
P_uM_1993_186     0.71429E+02  1.67E-02         P
P_uM_1993_187     0.15714E+03  1.68E-02         P
P_uM_1993_188     0.30000E+03  1.39E-02         P
P_uM_1993_189     0.40000E+03  1.12E-02         P
P_uM_1993_190     0.33571E+03  1.28E-02         P
P_uM_1993_191     0.32143E+03  1.32E-02         P
P_uM_1993_192     0.32143E+03  1.32E-02         P
P_uM_1993_193     0.11429E+03  1.76E-02         P
P_uM_1993_194     0.85714E+02  1.95E-02         P
P_uM_1993_195     0.11429E+03  2.50E-02         P
P_uM_1993_196     0.78571E+02  3.35E-02         P
P_uM_1993_197     0.27143E+03  1.50E-02         P
P_uM_1993_198     0.78571E+03  6.74E-03         P
P_uM_1993_199     0.28571E+03  1.44E-02         P
P_uM_1993_200     0.33571E+02  6.26E-02         P
P_uM_1993_201     0.22143E+02  9.80E-02         P
P_uM_1993_202     0.11429E+03  2.86E-02         P
P_uM_1993_203     0.41429E+02  4.37E-02         P
P_uM_1993_204     0.10000E+03  3.16E-02         P
P_uM_1993_205     0.25714E+02  6.29E-02         P
P_uM_1993_206     0.19286E+03  1.93E-02         P
P_uM_1993_207     0.15000E+03  2.33E-02         P
P_uM_1993_208     0.12857E+03  2.62E-02         P
P_uM_1993_209     0.14286E+03  2.42E-02         P
P_uM_1993_210     0.15000E+03  2.33E-02         P
P_uM_1993_211     0.15000E+03  2.33E-02         P
P_uM_1993_212     0.23571E+03  1.66E-02         P
P_uM_1993_213     0.29286E+03  1.41E-02         P
P_uM_1993_214     0.29286E+03  1.41E-02         P
P_uM_1993_215     0.31429E+03  1.34E-02         P
P_uM_1993_216     0.22857E+03  1.70E-02         P
P_uM_1993_217     0.19286E+03  1.93E-02         P
P_uM_1993_218     0.17857E+03  2.05E-02         P
P_uM_1993_219     0.17143E+03  2.11E-02         P
P_uM_1993_220     0.17857E+03  2.05E-02         P
P_uM_1993_221     0.16429E+03  2.18E-02         P
P_uM_1993_222     0.15000E+03  2.33E-02         P
P_uM_1993_223     0.17143E+03  2.11E-02         P
P_uM_1993_224     0.16429E+03  2.18E-02         P
P_uM_1993_225     0.12143E+03  2.73E-02         P
P_uM_1993_226     0.42143E+02  4.20E-02         P
P_uM_1993_227     0.29286E+02  4.66E-02         P

* model command line 
@PROJECT_DIR@\phast.bat

* model input/output 
@PROJECT_DIR@/@PHAST_ROOT_NAME@.chem.dat.tpl		@PHAST_ROOT_NAME@.chem.dat
@PROJECT_DIR@/@PHAST_ROOT_NAME@.trans.dat.tpl		@PHAST_ROOT_NAME@.trans.dat
P_uM_1993.ins		                		P_uM_1993.calc 
