pcf 
* control data 
restart estimation 
     17   227      2      0     1 
     2     1   single   point   1   0   0 
10.0  -3.0    0.3    0.03     -9  999  LAMFORGIVE DERFORGIVE 
0.2   2.0   1.0e-3 absparmax(1)=0.3
0.1  noaui 
30   .005  4   4  .005   4 
1    1    1  
* singular value decomposition 
1 
1 5e-7 
1 
* parameter groups 
chem         relative      1.00000E-02  0.0000    switch     2.0000      parabolic
trans        relative      1.00000E-02  0.0000    switch     2.0000      parabolic
* parameter data 
AnionOH2_k	fixed		absolute(1)	4.1		2.0		6.0		chem	1.0		0.0		1
AnionHPO4_k	none		absolute(1)	26.7		25.		30.0		chem	1.0		0.0		1
Anion_sites	fixed		factor		3450e-6		3450e-8		3450e-4		chem	1.0		0.0		1
CationOH2_k	fixed		absolute(1)	4.1		2.0		6.0		chem	1.0		0.0		1
Cation_k	fixed		absolute(1)	-1.8		-4.0		0.0		chem	1.0		0.0		1
Cation_sites	fixed		factor		23000e-6	23000e-8	23000e-4	chem	1.0		0.0		1
DO		fixed		factor		250.0		100.0		500.		chem	1.0		0.0		1
Remove_N2_k	fixed		factor		1.16e-7		1e-9		1e-5		chem	1.0		0.0		1
Effluent_P	fixed		factor		380.0		100.0		500.0		chem	1.0		0.0		1
Remove_P_k	fixed		factor		1.16e-8		1e-10		1e-5		chem	1.0		0.0		1
TOC		fixed		factor		1600.0		160.0		16000.0		chem	1.0		0.0		1
Decay_k		fixed		factor		1e-7		1e-9		1e-5		chem	1.0		0.0		1
SOC		fixed		factor		1000.0		10.0		10000.0		chem	1.0		0.0		1
Sorb_SOC_k	fixed		factor		1.16e-7		1e-9		1e-5		chem	1.0		0.0		1
React_SOC_k	fixed		factor		1.16e-7		1e-9		1e-5		chem	1.0		0.0		1
time_step	fixed		absolute(1)	0.125		0.0		0.25		trans	1.0		0.0		1
time_change	fixed		absolute(1)	1994		1994		2015		trans	1.0		0.0		1

* observation groups 
P

* observation data 
P_uM_1993_1     0.10000E-01    0.10000E+01             P
P_uM_1993_2     0.10000E-01    0.10000E+01             P
P_uM_1993_3     0.10000E-01    0.10000E+01             P
P_uM_1993_4     0.10000E-01    0.10000E+01             P
P_uM_1993_5     0.10000E-01    0.10000E+01             P
P_uM_1993_6     0.20000E-01    0.10000E+01             P
P_uM_1993_7     0.50000E-01    0.10000E+01             P
P_uM_1993_8     0.40000E-01    0.10000E+01             P
P_uM_1993_9     0.30000E-01    0.10000E+01             P
P_uM_1993_10     0.70000E-01    0.10000E+01             P
P_uM_1993_11     0.50000E-01    0.10000E+01             P
P_uM_1993_12     0.10000E-01    0.10000E+01             P
P_uM_1993_13     0.11000E+01    0.10000E+01             P
P_uM_1993_14     0.77000E+00    0.10000E+01             P
P_uM_1993_15     0.18000E+00    0.10000E+01             P
P_uM_1993_16     0.10000E+00    0.10000E+01             P
P_uM_1993_17     0.40000E-01    0.10000E+01             P
P_uM_1993_18     0.30000E-01    0.10000E+01             P
P_uM_1993_19     0.10000E+01    0.10000E+01             P
P_uM_1993_20     0.89000E+00    0.10000E+01             P
P_uM_1993_21     0.76000E+00    0.10000E+01             P
P_uM_1993_22     0.66000E+00    0.10000E+01             P
P_uM_1993_23     0.64000E+00    0.10000E+01             P
P_uM_1993_24     0.77000E+00    0.10000E+01             P
P_uM_1993_25     0.93000E+00    0.10000E+01             P
P_uM_1993_26     0.77000E+00    0.10000E+01             P
P_uM_1993_27     0.25000E+00    0.10000E+01             P
P_uM_1993_28     0.80000E-01    0.10000E+01             P
P_uM_1993_29     0.10000E+00    0.10000E+01             P
P_uM_1993_30     0.27000E+00    0.10000E+01             P
P_uM_1993_31     0.15000E+00    0.10000E+01             P
P_uM_1993_32     0.80000E-01    0.10000E+01             P
P_uM_1993_33     0.10000E+00    0.10000E+01             P
P_uM_1993_34     0.10000E-01    0.10000E+01             P
P_uM_1993_35     0.10000E-01    0.10000E+01             P
P_uM_1993_36     0.10000E-01    0.10000E+01             P
P_uM_1993_37     0.10000E-01    0.10000E+01             P
P_uM_1993_38     0.20000E-01    0.10000E+01             P
P_uM_1993_39     0.40000E-01    0.10000E+01             P
P_uM_1993_40     0.11000E+01    0.10000E+01             P
P_uM_1993_41     0.13000E+01    0.10000E+01             P
P_uM_1993_42     0.12000E+01    0.10000E+01             P
P_uM_1993_43     0.10000E+01    0.10000E+01             P
P_uM_1993_44     0.12000E+01    0.10000E+01             P
P_uM_1993_45     0.13000E+01    0.10000E+01             P
P_uM_1993_46     0.14000E+01    0.10000E+01             P
P_uM_1993_47     0.13000E+01    0.10000E+01             P
P_uM_1993_48     0.12000E+01    0.10000E+01             P
P_uM_1993_49     0.20000E-01    0.10000E+01             P
P_uM_1993_50     0.10000E-01    0.10000E+01             P
P_uM_1993_51     0.10000E-01    0.10000E+01             P
P_uM_1993_52     0.30000E-01    0.10000E+01             P
P_uM_1993_53     0.40000E-01    0.10000E+01             P
P_uM_1993_54     0.30000E-01    0.10000E+01             P
P_uM_1993_55     0.70000E-01    0.10000E+01             P
P_uM_1993_56     0.90000E-01    0.10000E+01             P
P_uM_1993_57     0.10000E+00    0.10000E+01             P
P_uM_1993_58     0.20000E+00    0.10000E+01             P
P_uM_1993_59     0.21000E+00    0.10000E+01             P
P_uM_1993_60     0.21000E+00    0.10000E+01             P
P_uM_1993_61     0.17000E+00    0.10000E+01             P
P_uM_1993_62     0.22000E+00    0.10000E+01             P
P_uM_1993_63     0.21000E+00    0.10000E+01             P
P_uM_1993_64     0.28000E+00    0.10000E+01             P
P_uM_1993_65     0.15000E+00    0.10000E+01             P
P_uM_1993_66     0.80000E-01    0.10000E+01             P
P_uM_1993_67     0.80000E-01    0.10000E+01             P
P_uM_1993_68     0.70000E-01    0.10000E+01             P
P_uM_1993_69     0.70000E-01    0.10000E+01             P
P_uM_1993_70     0.80000E-01    0.10000E+01             P
P_uM_1993_71     0.50000E-01    0.10000E+01             P
P_uM_1993_72     0.60000E-01    0.10000E+01             P
P_uM_1993_73     0.79000E+00    0.10000E+01             P
P_uM_1993_74     0.80000E-01    0.10000E+01             P
P_uM_1993_75     0.10000E-01    0.10000E+01             P
P_uM_1993_76     0.40000E-01    0.10000E+01             P
P_uM_1993_77     0.30000E-01    0.10000E+01             P
P_uM_1993_78     0.10000E-01    0.10000E+01             P
P_uM_1993_79     0.20000E-01    0.10000E+01             P
P_uM_1993_80     0.70000E-01    0.10000E+01             P
P_uM_1993_81     0.50000E+00    0.10000E+01             P
P_uM_1993_82     0.68000E+00    0.10000E+01             P
P_uM_1993_83     0.71000E+00    0.10000E+01             P
P_uM_1993_84     0.43000E+01    0.10000E+01             P
P_uM_1993_85     0.51000E+00    0.10000E+01             P
P_uM_1993_86     0.39000E+00    0.10000E+01             P
P_uM_1993_87     0.35000E+00    0.10000E+01             P
P_uM_1993_88     0.29000E+00    0.10000E+01             P
P_uM_1993_89     0.23000E+00    0.10000E+01             P
P_uM_1993_90     0.16000E+00    0.10000E+01             P
P_uM_1993_91     0.14000E+00    0.10000E+01             P
P_uM_1993_92     0.14000E+00    0.10000E+01             P
P_uM_1993_93     0.10000E-01    0.10000E+01             P
P_uM_1993_94     0.90000E-01    0.10000E+01             P
P_uM_1993_95     0.12000E+01    0.10000E+01             P
P_uM_1993_96     0.19000E+01    0.10000E+01             P
P_uM_1993_97     0.15000E+01    0.10000E+01             P
P_uM_1993_98     0.79000E+00    0.10000E+01             P
P_uM_1993_99     0.54000E+00    0.10000E+01             P
P_uM_1993_100     0.41000E+00    0.10000E+01             P
P_uM_1993_101     0.47000E+00    0.10000E+01             P
P_uM_1993_102     0.18000E+01    0.10000E+01             P
P_uM_1993_103     0.13000E+01    0.10000E+01             P
P_uM_1993_104     0.16000E+01    0.10000E+01             P
P_uM_1993_105     0.10000E+01    0.10000E+01             P
P_uM_1993_106     0.37000E+00    0.10000E+01             P
P_uM_1993_107     0.24000E+00    0.10000E+01             P
P_uM_1993_108     0.10000E-01    0.10000E+01             P
P_uM_1993_109     0.30000E-01    0.10000E+01             P
P_uM_1993_110     0.54000E+00    0.10000E+01             P
P_uM_1993_111     0.10000E+00    0.10000E+01             P
P_uM_1993_112     0.11000E+01    0.10000E+01             P
P_uM_1993_113     0.94000E+00    0.10000E+01             P
P_uM_1993_114     0.82000E+00    0.10000E+01             P
P_uM_1993_115     0.79000E+00    0.10000E+01             P
P_uM_1993_116     0.78000E+00    0.10000E+01             P
P_uM_1993_117     0.62000E+00    0.10000E+01             P
P_uM_1993_118     0.55000E+00    0.10000E+01             P
P_uM_1993_119     0.41000E+00    0.10000E+01             P
P_uM_1993_120     0.37000E+00    0.10000E+01             P
P_uM_1993_121     0.34000E+00    0.10000E+01             P
P_uM_1993_122     0.32000E+00    0.10000E+01             P
P_uM_1993_123     0.30000E+00    0.10000E+01             P
P_uM_1993_124     0.27000E+00    0.10000E+01             P
P_uM_1993_125     0.21000E+00    0.10000E+01             P
P_uM_1993_126     0.10000E+00    0.10000E+01             P
P_uM_1993_127     0.10000E-01    0.10000E+01             P
P_uM_1993_128     0.10000E-01    0.10000E+01             P
P_uM_1993_129     0.10000E-01    0.10000E+01             P
P_uM_1993_130     0.10000E-01    0.10000E+01             P
P_uM_1993_131     0.20000E-01    0.10000E+01             P
P_uM_1993_132     0.20000E-01    0.10000E+01             P
P_uM_1993_133     0.30000E-01    0.10000E+01             P
P_uM_1993_134     0.39000E+00    0.10000E+01             P
P_uM_1993_135     0.62000E+00    0.10000E+01             P
P_uM_1993_136     0.93000E+00    0.10000E+01             P
P_uM_1993_137     0.11000E+01    0.10000E+01             P
P_uM_1993_138     0.12000E+01    0.10000E+01             P
P_uM_1993_139     0.13000E+01    0.10000E+01             P
P_uM_1993_140     0.12000E+01    0.10000E+01             P
P_uM_1993_141     0.12000E+01    0.10000E+01             P
P_uM_1993_142     0.20000E-01    0.10000E+01             P
P_uM_1993_143     0.10000E-01    0.10000E+01             P
P_uM_1993_144     0.30000E-01    0.10000E+01             P
P_uM_1993_145     0.10000E-01    0.10000E+01             P
P_uM_1993_146     0.10000E-01    0.10000E+01             P
P_uM_1993_147     0.10000E-01    0.10000E+01             P
P_uM_1993_148     0.10000E-01    0.10000E+01             P
P_uM_1993_149     0.20000E-01    0.10000E+01             P
P_uM_1993_150     0.10000E-01    0.10000E+01             P
P_uM_1993_151     0.20000E-01    0.10000E+01             P
P_uM_1993_152     0.10000E-01    0.10000E+01             P
P_uM_1993_153     0.10000E-01    0.10000E+01             P
P_uM_1993_154     0.34000E+00    0.10000E+01             P
P_uM_1993_155     0.14000E+01    0.10000E+01             P
P_uM_1993_156     0.17000E+01    0.10000E+01             P
P_uM_1993_157     0.11000E+01    0.10000E+01             P
P_uM_1993_158     0.26000E+00    0.10000E+01             P
P_uM_1993_159     0.15000E+00    0.10000E+01             P
P_uM_1993_160     0.21000E+00    0.10000E+01             P
P_uM_1993_161     0.40000E-01    0.10000E+01             P
P_uM_1993_162     0.60000E-01    0.10000E+01             P
P_uM_1993_163     0.10000E-01    0.10000E+01             P
P_uM_1993_164     0.60000E-01    0.10000E+01             P
P_uM_1993_165     0.30000E-01    0.10000E+01             P
P_uM_1993_166     0.40000E-01    0.10000E+01             P
P_uM_1993_167     0.10000E-01    0.10000E+01             P
P_uM_1993_168     0.20000E-01    0.10000E+01             P
P_uM_1993_169     0.20000E-01    0.10000E+01             P
P_uM_1993_170     0.14000E+00    0.10000E+01             P
P_uM_1993_171     0.43000E+00    0.10000E+01             P
P_uM_1993_172     0.64000E+00    0.10000E+01             P
P_uM_1993_173     0.72000E+00    0.10000E+01             P
P_uM_1993_174     0.79000E+00    0.10000E+01             P
P_uM_1993_175     0.84000E+00    0.10000E+01             P
P_uM_1993_176     0.99000E+00    0.10000E+01             P
P_uM_1993_177     0.91000E+00    0.10000E+01             P
P_uM_1993_178     0.97000E+00    0.10000E+01             P
P_uM_1993_179     0.95000E+00    0.10000E+01             P
P_uM_1993_180     0.15000E+01    0.10000E+01             P
P_uM_1993_181     0.13000E+01    0.10000E+01             P
P_uM_1993_182     0.30000E-01    0.10000E+01             P
P_uM_1993_183     0.97000E+00    0.10000E+01             P
P_uM_1993_184     0.26000E+01    0.10000E+01             P
P_uM_1993_185     0.21000E+01    0.10000E+01             P
P_uM_1993_186     0.10000E+01    0.10000E+01             P
P_uM_1993_187     0.22000E+01    0.10000E+01             P
P_uM_1993_188     0.42000E+01    0.10000E+01             P
P_uM_1993_189     0.56000E+01    0.10000E+01             P
P_uM_1993_190     0.47000E+01    0.10000E+01             P
P_uM_1993_191     0.45000E+01    0.10000E+01             P
P_uM_1993_192     0.45000E+01    0.10000E+01             P
P_uM_1993_193     0.16000E+01    0.10000E+01             P
P_uM_1993_194     0.12000E+01    0.10000E+01             P
P_uM_1993_195     0.16000E+01    0.10000E+01             P
P_uM_1993_196     0.11000E+01    0.10000E+01             P
P_uM_1993_197     0.38000E+01    0.10000E+01             P
P_uM_1993_198     0.11000E+02    0.10000E+01             P
P_uM_1993_199     0.40000E+01    0.10000E+01             P
P_uM_1993_200     0.47000E+00    0.10000E+01             P
P_uM_1993_201     0.31000E+00    0.10000E+01             P
P_uM_1993_202     0.16000E+01    0.10000E+01             P
P_uM_1993_203     0.58000E+00    0.10000E+01             P
P_uM_1993_204     0.14000E+01    0.10000E+01             P
P_uM_1993_205     0.36000E+00    0.10000E+01             P
P_uM_1993_206     0.27000E+01    0.10000E+01             P
P_uM_1993_207     0.21000E+01    0.10000E+01             P
P_uM_1993_208     0.18000E+01    0.10000E+01             P
P_uM_1993_209     0.20000E+01    0.10000E+01             P
P_uM_1993_210     0.21000E+01    0.10000E+01             P
P_uM_1993_211     0.21000E+01    0.10000E+01             P
P_uM_1993_212     0.33000E+01    0.10000E+01             P
P_uM_1993_213     0.41000E+01    0.10000E+01             P
P_uM_1993_214     0.41000E+01    0.10000E+01             P
P_uM_1993_215     0.44000E+01    0.10000E+01             P
P_uM_1993_216     0.32000E+01    0.10000E+01             P
P_uM_1993_217     0.27000E+01    0.10000E+01             P
P_uM_1993_218     0.25000E+01    0.10000E+01             P
P_uM_1993_219     0.24000E+01    0.10000E+01             P
P_uM_1993_220     0.25000E+01    0.10000E+01             P
P_uM_1993_221     0.23000E+01    0.10000E+01             P
P_uM_1993_222     0.21000E+01    0.10000E+01             P
P_uM_1993_223     0.24000E+01    0.10000E+01             P
P_uM_1993_224     0.23000E+01    0.10000E+01             P
P_uM_1993_225     0.17000E+01    0.10000E+01             P
P_uM_1993_226     0.59000E+00    0.10000E+01             P
P_uM_1993_227     0.41000E+00    0.10000E+01             P

* model command line 
@PROJECT_DIR@\phast.bat

* model input/output 
@PROJECT_DIR@/@PHAST_ROOT_NAME@.chem.dat.tpl		@PHAST_ROOT_NAME@.chem.dat
@PROJECT_DIR@/@PHAST_ROOT_NAME@.trans.dat.tpl		@PHAST_ROOT_NAME@.trans.dat
P_uM_1993.ins		                		P_uM_1993.calc 
