#DATABASE \dos\p\wateq4f.dat # change dir to where this file is located
SOLUTION_SPECIES
 H2O + 0.01e- = H2O-0.01; log_k -9
KNOBS; -converg 1e-6; -step_size 10; -pe_step 1.3; -diag true; -iter 8000
EXCHANGE_SPECIES
 H+ + X- = HX; log_k 1.0; -gamma 9.0 0.0 # kaol has PZC = 4.6, sorbs protons
SOLUTION 1 Mine water
 pH 2.3; pe 18.34; O(0) 0.6; Ca 11.6 charge; Fe 10.97; S 34.15; Si 0.26; U 0.18; Zn 1.5
END
SOLUTION 2 Natural oxidized water
 pH 7; O(0) 0.6; Ca 2; Fe 1e-10 Goethite 2; C 4.8 charge; Si 0.26 Cristobalite
EQUILIBRIUM_PHASES 2
 Goethite 2; Cristobalite
END
SOLUTION 3 Pyrite containing quartile
 pH 6.181; pe 0 Pyrite; Ca 2; Fe 1 Goethite 2; C 4.8 charge; S 1; Si 0.26 Cristobalite
EQUILIBRIUM_PHASES 3
 Goethite 2; Cristobalite; Pyrite; Coffinite 0 0
END
SURFACE 2
Hfo_wOH 5e-3 600 0.89; Hfo_s 5e-5
 -donnan 1e-15; -equil 2
EXCHANGE 2; X 0.05; -equil 2
END
SURFACE 3
Hfo_wOH 5e-3 600 0.89; Hfo_s 5e-5
 -donnan 1e-15; -equil 3
EXCHANGE 3; X 0.05; -equil 3
END
SELECTED_OUTPUT
 -file u2.sel; -reset false; -pH true
USER_PUNCH
 -head M_SO4 M_Zn M_U Coff Pyr %error
 10 punch mol("SO4-2"), tot("Zn"), tot("U"), equi("Coffinite"), equi("Pyrite"), percent_error
END

