# database MoMaS.dat
SOLUTION_SPECIES
# C6 = 10X2 + 3X3 
3[X3]-3 + 10H+ = [X3]3H10+
log_k -1e4 
-gamma    1000000000 0

# C7 = -8X2 + 2X4 
2[X4]H4+3 = [X4]2-2 + 8H+
log_k -1e4
-gamma    1000000000 0

# KNOBS 
    # -diagonal_scale true 
    # -tolerance 1e-19 
SOLUTION_SPECIES 
    H2O + 0.01e- = H2O-0.01 
    -log_k -9 

SOLUTION 1
UNITS mol/kgw
pH  0.61686 # [X2] = 0.3
[X1]   0.3
[X3]   0.3
O(0)   1e-6
END