SOLUTION_MASTER_SPECIES
        [A]   [A]   1       1       1
        [B]   [B]   1       1       1
        [C]   [C]   1       1       1
        [D]   [D]   1       1       1
SOLUTION_SPECIES
        [A] = [A]
                log_k   0
        [B] = [B]
                log_k   0
        [C] = [C]
                log_k   0
        [D] = [D]
                log_k   0
SOLUTION 1
END
SOLUTION 2
        units   mmol/kgw
        pe      12.0    O2(g)   -0.67
        [A]   1.0
END
RATES
        [A]_decay
        -start
10 rate = -TOT("[A]") * .05/(3600*24)
20 moles = rate * TIME * SOLN_VOL
30 SAVE moles
        -end
        [B]_decay
        -start
10 rate = -TOT("[B]") * .02/(3600*24)
20 moles = rate * TIME * SOLN_VOL
30 SAVE moles
        -end
        [C]_decay
        -start
10 rate = -TOT("[C]") * .01/(3600*24)
20 moles = rate * TIME * SOLN_VOL
30 SAVE moles
        -end
        [D]_decay
        -start
10 rate = -TOT("[D]") * .005/(3600*24)
20 moles = rate * TIME * SOLN_VOL
30 SAVE moles
        -end
END
KINETICS 1
        [A]_decay
                -formula [A] 1 [B] -1.0
                -m 0
        [B]_decay
                -formula [B] 1 [C] -1.0
                -m 0
        [C]_decay
                -formula [C] 1 [D] -1.0
                -m 0
        [D]_decay
                -formula [D] 1
                -m 0
END
SELECTED_OUTPUT
        -file ex2.dummy.sel
        -reset false
USER_PUNCH
        -heading A B C D 
        -start
10 PUNCH TOT("[A]")*1000
20 PUNCH TOT("[B]")*1000
30 PUNCH TOT("[C]")*1000
40 PUNCH TOT("[D]")*1000
        -end
END
