SOLUTION_MASTER_SPECIES
    [X1]          [X1]             0     1               1
    [X3]          [X3]             0     1               1
    [X4]          [X4]H2           0     1               1
SOLUTION_SPECIES   
H+ = H+
log_k 0
-gamma    1000000000 0
    
[X1] = [X1]
    log_k     0
    -gamma    1000000000 0
[X3] = [X3]
    log_k     0
    -gamma    1000000000 0
[X4]H2 = [X4]H2
    log_k     0
    -gamma    1000000000 0

# C1 = -X2
H2O = OH- + H+ + H2O
-no_check
log_k -12.0    
-gamma    1000000000 0

# C2 = X2 + X3
H+ + [X3] = H[X3]+
log_k 0
-gamma    1000000000 0

# C3 = -X2 + X4
[X4]H2 = [X4]H- + H+
log_k 0
-gamma    1000000000 0

# C4 = -4X2 + X3 + 3X4
3[X4]H2 + [X3] = [X4]3[X3]H2-4 + 4H+
log_k -1
-gamma    1000000000 0

# C5 = 4X2 + 3X3 + X4
[X4]H2 + 3[X3] + 4H+ = [X4][X3]3H6+4
log_k 35 
-gamma    1000000000 0

SURFACE_MASTER_SPECIES
    S             SOH            
SURFACE_SPECIES
SOH = SOH
    log_k     0
# S1 = 3X2 + X3 + S
SOH + [X3] + 3H+ = SOH[X3]H3+3
log_K 6
# S2 = -3X2 + x4 + 2S
2SOH + [X4]H2 = S2O2H[X4]-3 + 3H+
log_k  -0.699

SURFACE_MASTER_SPECIES
    B             BOH            
SURFACE_SPECIES
BOH = BOH
    log_k     0
# S3 = 3X2 + X3 + S
BOH + [X3] + 3H+ = BOH[X3]H3+3
log_K 6
# S4 = -3X2 + x4 + 2S
2BOH + [X4]H2 = B2O2H[X4]-3 + 3H+
log_k 0.301

#infilling solution
SOLUTION 0 Inflow 0-5000 s
UNITS mol/kgw
pH  0.61686 # [X2] = 0.3
[X1]   0.3
[X3]   0.3
[X4]   1e-10
END

SOLUTION 1001 Initial condition
UNITS mol/kgw
pH 7.0
[X1]   1e-10
[X3]   1e-10
[X4]   2
END

#initial condition A
SURFACE 1001 Medium A
-no_edl
SOH   1.0 1 1
END
USE solution 1001
USE surface 1001
SAVE solution 1
SAVE surface 1
END

#initial condition B
USE solution 1001
SURFACE 1002 Medium B
-no_edl
BOH   10.0 1 1
SAVE solution 11
SAVE surface  11

END
SELECTED_OUTPUT 1
-reset false
USER_PUNCH 1
-heading x1 x2 x3 x4 c1 c2 c3 c4 c5 cs0 cs1 cs2 cs3 cs4 tot_x1 tot_x2 tot_x3 tot_x4
10 C0 = MOL("H+")
20 C1 = MOL("OH-")
30 C2 = MOL("H[X3]+") * (TOT("[X3]")>0)
40 C3 = MOL("[X4]H-") * (TOT("[X4]")>0)
50 C4 = MOL("[X4]3[X3]H2-4") * (TOT("[X3]")>0) * (TOT("[X4]")>0)
60 C5 = MOL("[X4][X3]3H6+4") * (TOT("[X3]")>0) * (TOT("[X4]")>0)
65 CS0 = MOL("SOH") * (TOT("S")>0) 
70 CS1 = MOL("SOH[X3]H3+3") * (TOT("S")>0) * (TOT("[X3]")>0)
80 CS2 = MOL("S2O2H[X4]-3") * (TOT("S")>0) * (TOT("[X4]")>0)
85 CS3 = MOL("BOH[X3]H3+3") * (TOT("B")>0) * (TOT("[X3]")>0)
90 CS4 = MOL("B2O2H[X4]-3") * (TOT("B")>0) * (TOT("[X4]")>0)
100 TOT_X1 = TOT("[X1]")
110 TOT_X2 = C0 - C1 + C2 - C3 - 4*C4 + 4*C5 + 3*CS1 - 3*CS2 + 3*CS3 - 3*CS4
120 TOT_X3 = TOT("[X3]") + CS1 * (TOT("S")>0) + CS3 * (TOT("B")>0)
130 TOT_X4 = TOT("[X4]") + CS2 * (TOT("S")>0) + CS4 * (TOT("B")>0)
200 X1 = MOL("[X1]") * (TOT("[X1]")>0)
210 X2 = MOL("H+")
220 X3 = MOL("[X3]") * (TOT("[X3]")>0)
230 X4 = MOL("[X4]H2") * (TOT("[X4]")>0)
300 PUNCH x1, x2, x3, x4, c1, c2, c3, c4, c5, cs0, cs1, cs2, cs3, cs4, tot_x1, tot_x2, tot_x3, tot_x4
END














