TITLE Input file for example 6, ammonium/nitrate plume
SOLUTION_SPECIES
        NO3- + 2 H+ + 2 e- = NO2- + H2O
                  log_k           -50
        2 NO3- + 12 H+ + 10 e- = N2 + 6 H2O
                  log_k           0
SURFACE_MASTER_SPECIES
        Surf Surf
SURFACE_SPECIES
        Surf = Surf 
                  log_k 0.0
        Surf + NH4+ = SurfNH4+ 
                  log_k -100
        Surf + NH3 = SurfNH3 
                  log_k -100    
END        
SURFACE 1 linear ammonia adsoprtion
        Surf      1e100   1.0     1e100
END
SOLUTION 1 Uncontaminated groundwater, O2 only
        pH        5.6        
        pe        7.0
        temp      14.0
        units     umol/L
        O(0)      250   O2(g)   -0.7
SOLUTION 2 Sewage effluent without oxygen
        pH        6.00 
        pe        7.0
        temp      14.0
        units     umol/L
        Cl        990    
        N(-3)     180
SOLUTION 3 Rain, O2 only
        pH        5.6        
        pe        7.0
        temp      14.0
        units     umol/L
        O(0)      250   O2(g)   -0.7
END
SELECTED_OUTPUT
        -reset    false
        -totals   O(0)  N(5)    N(-3) Cl 
END
