SOLUTION 1 Precipitation
	pH 7 
	Ca     1
	Cl     2 charge
END
#SOLUTION 2 Groundwater
#	pH 7 
#	Mg     1
#	Br     2 charge
#END
SOLUTION 3 Seawater
	pH 7 
	Na	1
	Cl	1 charge
END
SOLUTION 4 Upconing Seawater
	pH 7 
	K	1
	Cl	1 charge
SOLUTION 5 Initial
	pH 7 
	Li	1
	Cl	1 charge	
SELECTED_OUTPUT
	-reset false
USER_PUNCH
-heading Cl_mmol Li_mmol Ca_mmol Na_mmol K_mmol 
10 PUNCH TOT("Cl")*1000, TOT("Li")*1000, TOT("Ca")*1000, TOT("Na")*1000,  TOT("K")*1000


SELECTED_OUTPUT 5
USER_PUNCH 5
-heading Cl Li Ca Na 
10 PUNCH TOT("Cl")*1000, TOT("Li")*1000, TOT("Ca")*1000, TOT("Na")*1000

END