TITLE
        Kindred and Celia, WRR, 1989, v. 25, p. 1154. Problem 4.4. 
        Aerobic biodegradation combined with nitrate-reducing metabolism
SOLUTION_MASTER_SPECIES
        Substrate       Substrate       0       1.0     1.0
        Ndis            Ndis            0.0     N       14.0067
SOLUTION_SPECIES
        Substrate = Substrate
        log_k   0.0
        Ndis = Ndis
        log_k   0.0
SOLUTION 1  Initial condition
        units   mg/L
        pH      7.0     
        pe      8
        Substrate       0.0
        O(0)            3
        N(5)            2
        Ndis            0.01
        Na              1       charge
SOLUTION 2  Infilling
        units   mg/L
        pH      7.0     
        pe      8
        Substrate       10. 
        O(0)            3
        N(5)            2
        Ndis            0.01
        Na              1       charge
END
RATES
Aerobic
        -start
200 vmaxO = 1/(24*3600)
210 vmaxS1 = 1/(24*3600)
220 vmaxN = .1/(24*3600)
230 vmaxNI = 1/(24*3600)
240 Kh1O = .1
250 Kh1S1 = .1
260 Kh1N = .01
270 Kh2NI = .1
280 Kh2S1 = .1
290 kbio = 1
300 YN = 7
310 YNI = .1
320 km = .01/(24*3600)
330 k_nc_do = .001

410 O = TOT("O(0)")*16*1000
420 NI = TOT("N(5)")*14*1000
430 S1 = TOT("Substrate")*1000
440 N = TOT("Ndis")*14*1000
450 x1 = KIN("aerobic_biomass")
460 x2 = KIN("N_reduction_biomass")              
470 Ib = 1 + (x1 + x2) / kbio
480 In = 1 + O / k_nc_do

500    REM  **  Oxygen rate ***
510 rateO = (vmaxO * x1 / Ib) * (O / ( kh1O + O))
520    REM  **  Substrate rate **
530 rateS1 = 2*(vmaxS1 * x1 / Ib) * (S1 / ( kh1S1 + S1))
540 rate = rateO
550 if rateS1 < rate then rate = rateS1
560 mg_O = TIME*rate
570 SAVE -mg_O * SOLN_VOL
        -end
Aerobic_biomass
        -start
200 vmaxO = 1/(24*3600)
210 vmaxS1 = 1/(24*3600)
220 vmaxN = .1/(24*3600)
230 vmaxNI = 1/(24*3600)
240 Kh1O = .1
250 Kh1S1 = .1
260 Kh1N = .01
270 Kh2NI = .1
280 Kh2S1 = .1
290 kbio = 1
300 YN = 7
310 YNI = .1
320 km = .01/(24*3600)
330 k_nc_do = .001

410 O = TOT("O(0)")*16*1000
420 NI = TOT("N(5)")*14*1000
430 S1 = TOT("Substrate")*1000
440 N = TOT("Ndis")*14*1000
450 x1 = KIN("aerobic_biomass")
460 x2 = KIN("N_reduction_biomass")              
470 Ib = 1 + (x1 + x2) / kbio
480 In = 1 + O / k_nc_do

500    REM  **  Nitrogen rate ***
510 rateN = YN*(vmaxN * x1 / Ib) * (N / ( kh1N + N))
520    REM  **  Substrate rate ***
530 rateS1 = .25*(vmaxS1 * x1 / Ib) * (S1 / ( kh1S1 + S1))
540    REM  **  Oxygen rate ***
550 rateO = 0.125*(vmaxO * x1 / Ib) * (O / ( kh1O + O))
560 rate = RateN
570 if rateS1 < rate then rate = rateS1
580 if rateO < rate then rate = rateO
590 mg_O_biomass = TIME*(rate - km * x1)
600 SAVE -mg_O_biomass * SOLN_VOL
        -end
N_reduction
        -start
200 vmaxO = 1/(24*3600)
210 vmaxS1 = 1/(24*3600)
220 vmaxN = .1/(24*3600)
230 vmaxNI = 1/(24*3600)
240 Kh1O = .1
250 Kh1S1 = .1
260 Kh1N = .01
270 Kh2NI = .1
280 Kh2S1 = .1
290 kbio = 1
300 YN = 7
310 YNI = .1
320 km = .01/(24*3600)
330 k_nc_do = .001

410 O = TOT("O(0)")*16*1000
420 NI = TOT("N(5)")*14*1000
430 S1 = TOT("Substrate")*1000
440 N = TOT("Ndis")*14*1000
450 x1 = KIN("aerobic_biomass")
460 x2 = KIN("N_reduction_biomass")              
470 Ib = 1 + (x1 + x2) / kbio
480 In = 1 + O / k_nc_do

500    REM  **  Nitrate rate ***
510 rateNI = (vmaxNI * x2 / (Ib*In)) * (NI / ( kh2NI + NI))
520    REM  **  Substrate rate ***
530 rateS1 = 2*(vmaxS1 * x2 / (Ib)) * (S1 / ( kh2S1 + S1))
540 rate = rateNI
550 if rateS1 < rate then rate = rateS1
560 mg_NI = TIME*rate
570 SAVE -mg_NI * SOLN_VOL

        -end
N_reduction_biomass
        -start
200 vmaxO = 1/(24*3600)
210 vmaxS1 = 1/(24*3600)
220 vmaxN = .1/(24*3600)
230 vmaxNI = 1/(24*3600)
240 Kh1O = .1
250 Kh1S1 = .1
260 Kh1N = .01
270 Kh2NI = .1
280 Kh2S1 = .1
290 kbio = 1
300 YN = 7
310 YNI = .1
320 km = .01/(24*3600)
330 k_nc_do = .001

410 O = TOT("O(0)")*16*1000
420 NI = TOT("N(5)")*14*1000
430 S1 = TOT("Substrate")*1000
440 N = TOT("Ndis")*14*1000
450 x1 = KIN("aerobic_biomass")
460 x2 = KIN("N_reduction_biomass")              
470 Ib = 1 + (x1 + x2) / kbio
480 In = 1 + O / k_nc_do

500    REM  **  Nitrate rate ***
510 rateNI = YNI*(vmaxNI * x2 / (Ib*In)) * (NI / ( kh2NI + NI))
520    REM  **  Substrate rate ***
530 rateS1 = .2*(vmaxS1 * x2 / (Ib)) * (S1 / ( kh2S1 + S1))
540    REM  **  Nitrogen rate ***
550 rateN = YN*(vmaxN * x2 / Ib) * (N / ( kh1N + N))
560 rate = RateNI
570 if rateS1 < rate then rate = rateS1
580 if rateN < rate then rate = rateN
590 mg_N_biomass = TIME*(rate - km * x2)
600 SAVE -mg_N_biomass * SOLN_VOL
        -end

KINETICS 1 Kinetics for all cells except inlet boundary
Aerobic
#     mg_O * 1/gfw * 1/1000 = mg_O * 1/(16*1000) = mg_O * 6.25e-5
#     mg_O * (mg_S/mg_O)* 1 / gfw * 1/1000 = mg_O * 0.5 * 1/(1*1000) = mg_O * 5e-4
        -formula  O 6.25e-5 Substrate 5e-4
        -m 0
Aerobic_biomass
        -formula  Ndis  1.02041E-05 
        -m 0.2
N_reduction
#     mg_NI * 1/gfw * 1/1000 = mg_NI * 1/(14*1000) = mg_NI *  7.14286E-05 
#     mg_NI * (mg_S/mg_NI) * 1/gfw * 1/1000 = mg_NI * 0.5 * 1/(1*1000) = mg_NI *  5e-4
        -formula  NaNO3  7.14286E-05 Substrate 5e-4
        -m 0
N_reduction_biomass
        -formula  Ndis  1.02041E-05 
        -m 0.1
KINETICS 2  Special kinetics for inlet boundary
Aerobic_biomass
        -formula    Ndis  0
        -m 0.2
N_reduction_biomass
        -formula  Ndis  0
        -m 0.1

SELECTED_OUTPUT
        -file kindred4.4.sel
        -reset false
USER_PUNCH
-headings Substrate N(5) Ndis O(0) O_biomass N_biomass
10 PUNCH TOT("Substrate")*1000, TOT("N(5)")*14*1000, TOT("Ndis")*14*1000, TOT("O(0)")*16*1000
20 PUNCH KIN("Aerobic_biomass"), KIN("N_reduction_biomass")
END
