SOLUTION_MASTER_SPECIES
        A       A       0       A       1
SOLUTION_SPECIES
        A = A
        log_k   0
SURFACE_MASTER_SPECIES
        Surf    Surf
SURFACE_SPECIES
        Surf = Surf
                log_k 0
        Surf + A = SurfA 
                log_k   -10
SOLUTION 1
	 Na	1
	 Cl	1
END
SOLUTION 2
        A        1.0 mmol/kgw
	Na	 1
	Br	 1
END
SURFACE 1
        -no_edl
        Surf    1e10    
END
EQUILIBRIUM_PHASES 1
        Calcite  0 1
END
SOLID_SOLUTION 1
        CaSrBaSO4    # greater than 2 components, ideal
                -comp   Anhydrite   1.
                -comp   Celestite   0.1
                -comp   Barite      1
END
EXCHANGE 1              
        NaX             2.0
END
GAS_PHASE 1
        -fixed_volume
        -volume 1
        N2(g)      0.78
        O2(g)      .0003
END
KINETICS 1
        K-feldspar
                -m0 2
                -m  1
#        k0 * A/V = 1e-16 mol/cm2/s * (10% fsp, 0.1mm cubes) 136/cm = 136.e-13 mol/dm3/s
                -parms 1.36e4  0.1
                -tol 1e-12
        Pyrite  
                -tol    1e-6
                -m0     2
                -m      1
                -parms -5.0     0.1     .5      -0.11 
END
SELECTED_OUTPUT
        -file free.dummy.sel
        -reset false
USER_PUNCH
        -headings A SurfA SurfA/A Cl Br
10 PUNCH TOT("A")*1000
20 PUNCH MOL("SurfA")*1000
30 IF TOT("A") > 0 THEN PUNCH MOL("SurfA")/TOT("A") ELSE PUNCH -1
40 PUNCH TOT("Cl")*1000
50 PUNCH TOT("Br")*1000
END
